test/data/EMG.PWF
TITU
ONS * PARPEL  *PUC                                                              
DOPC IMPR
(Op) E (Op) E (Op) E (Op) E (Op) E (Op) E (Op) E (Op) E (Op) E (Op) E
CREM L CTAP L STEP L NEWT L RCVG L RMON L FILE L SUBS L CONT L NOVO L
CELO L MFCT L VLCR L CPHS L
99999
DBAR
(Num)OETGb(   nome   )Gl( V)( A)( Pg)( Qg)( Qn)( Qm)(Bc  )( Pl)( Ql)( Sh)Are(Vf)M(1)(2)(3)(4)(5)(6)(7)(8)(9)(10
  258 L2  LIGHT         1020  0. -14.36.79-999999999                       11000                                   
 1752 L2 GFRIBUR-RJ138 51000  0.61.0221.25-999999999                      651000                                   
 1753 L  IFRIBUR-RJ069 51005-1.9                                          651030                                   
 3300 L  GAPARAI-MG138 51016.224                                          181000                                   
 3301 L  GLEOPOL-MG138 510001.17                                          181000                                   
 3302 L  ILEOPOL-MG069 510261.17                           .003.0012      181000                                   
 3303 L  GN.U.MA-MG138 5 9911.67                                          181000                                   
 3304 L1 IN.U.MAPCH069 510012.87  15.-9.23 -6.9  6.9        2.8  1.1      181000                                   
 3305 L  GCATAG2-MG138 5 9881.76                          .0018.4E-4      181000                                   
 3306 L1 ICATAG2PCH069 510181.73 1.16-.346 -.66  .66                      181000                                   
 3307 L  GMURIA2-MG138 5 9683.09                                          181000                                   
 3308 L  IMURIA2-MG069 5 9935.01   7.   0.                .0018.0002      181000                                   
 3309 L1 IMURIA1PCH069 5 970 6.8  7.8 -34. -1.5  1.5      .0018.0005      181000                                   
 3310 L  GUBA-2--MG138 5 9931.02                          .0026.0002      181000                                   
 3311 L  IUBA-2--MG069 510181.02                                          181000                                   
 3312 L  IUBA-1--MG069 510181.02                          .0014   0.      181000                                   
 3313 L  GVRBRA2-MG138 5 989.919                            2.6  1.1      181000                                   
 3314 L  IVRBRA2-MG069 51000.935                          .0008.0004      181000                                   
 3315 L  IVRBRA1-MG069 51000.935                          .0018.0003      181000                                   
 3316 L1 IU.ITU-PCH069 5 999.792.0001-1.97-1.21 1.21      .0009   0.      181000                                   
 3317 L  GTOCANT-MG138 5 996.951                          .0008.0001      181000                                   
 3318 L  ICATAG1-MG069 510131.63                            5.5  2.5      181000                                   
 3319 L1 IMANHU-PCH069 5 982-1.1 16.4-11.9 -5.8  5.8       30.6  10.      181000                                   
 3320 L  IREALEZ-MG069 51024-.25                          .0007.1E-4      181000                                   
 3321 L  GMATIPO-MG138 51025 -.3                                          181000                                   
 3322 L1 IMATIPOPCH069 51024-.23   .5-.731 -.37  .37      .0007   0.      181000                                   
 3323 L1 GU.GRANPCH138 51025 -.3.0001.7571-16.8 16.8                      181000                                   
 3324 L  IAPARAI-MG069 51016.224                          .0008.2E-4      181000                                   
 3325 L  XLARANJ-MG069 5 9973.84                          .0003.0003      181000                                   
 3326 L1 IU.ERV-PCH069 5 9662.78.5E-4-9.85  -2.   2.      .0004.1E-4      181000                                   
 3327 L1 IU.ENC-PCH069 5 994  5..9E-4 .988-11.1 11.1      .0002.0001      181000                                   
 3328 L  IGUIRIC-MG069 5 982 1.9                          .0003.0002      181000                                   
 3329 L1 GS.M.AN-MG138 5 994.628   0. -17.   0.   0.      .0002   0.      181000                                   
 3330 L1 GU.GUA-PCH138 51015.523.00041.351-1.53 1.53                      181000                                   
 3331 L  ISJNEPU-MG069 510012.84                          .0014.0003      181000                                   
 3332 L  GU.ITUE-MG138 51003.776                                          181000                                   
 3333 L1 GU.TRI-PCH138 5 9851.57.0009 -19.-17.7 17.7                      181000                                   
 3334 L  IASTOLF-MG069 510012.84                          .0008.0001      181000                                   
 3335 L  XRODEIR-MG069 510022.84                          .0011.6E-4      181000                                   
 3336 L  IDIVIN--MG069 510181.02                          .0004.7E-4      181000                                   
 3337 L1 GBRAU--PCH138 5 9812.36.00075.858 -16.  16.                      181000                                   
 3338 L  GP.FIAL-MG138 51025 -.3                            1.4   .3      181000                                   
 3339 L  GUBA3---MG138 5 9901.17                          .0012.0006      181000                                   
 3340 L  IJAP----RJ069 51004-1.9   0.-3.83                  61. 15.2      651030                                   
 3341 L  GSAMARC-MG138 51024-.45                            10.  2.2      181000                                   
 3342 L  GLUM----RJ138 51000  0.                          .0003.0002      651000                                   
 3343 L  GCONQUI-RJ138 51000  0.                          .0005.0003      651000                                   
 3344 L2  FURNAS        1020  0.8.68214.86-999999999                       11000                                   
 3345 L  GPF.DEF-MG138 51026-.31                                          181020                                   
 3348 L  XMRI-DV-MG069 510053.01                          .0004.0002      181000                                   
 3349 L  GMAU2---MG138 51026-.48                          .0008.0001      181000                                   
 3381 L  IMRU----MG069 2 9944.97                          .0003.0001      181000                                   
 4063 L2  CEMIG         1020  0. 14.323.07-999999999                       11000                                   
 4100 L1 VJFORA1UTE001 51040.412.00438.346 -21.  28.                      181000                                   
 4101 L  GJFORA--MG138 51021.411                                          181000                                   
 9001 L  GMANHUA-MG138 51020  0.                                          181000                                   
 9042 L2  ENEL-----CEN  1000  0..0003.0002-999999999                       11000                                   
 9043 L2  ENEL---CQT    1000  0..0005.0003-999999999                       11000                                   
 9619 L  GIL-AP1-RJ138 51018.111                                          181000                                   
 9620 L  GIL-AP2-RJ138 51018.111                                          181000                                   
99999
DLIN
(De )d O d(Pa )NcEP ( R% )( X% )(Mvar)(Tap)(Tmn)(Tmx)(Phs)(Bc  )(Cn)(Ce)Ns(Cq)(1)(2)(3)(4)(5)(6)(7)(8)(9)(10
  258      9619 1 T  .60971.2666 .3058                           96. 96.   96.                                
  258      9620 1 T  .60971.2666 .3058                           96. 96.   96.                                
 1752      1753 1          10.84      .9855  .85 1.05      -1753 67. 67.32 32.                                
 1752      1753 2          10.84      .9855  .85 1.05      -1753 67. 67.32 32.                                
 1753      3340 1      .05   .05                                 61. 61.  103.                                
 3300      3301 1     5.19 11.09 2.515                           95. 95.  103.                                
 3300      3305 1     6.96 14.76 3.376                           95. 95.   25.                                
 3300      3324 1     5.22 41.49         1.                      15. 15.  103.                                
 3300      9619 1 T  .60981.2666 .3059                           96.120.   96.                                
 3300      9620 1 T  .60981.2666 .3059                           96.120.   96.                                
 3301      3302 1      .73 17.36       .975                      37. 37.   33.                                
 3301      3303 1     2.52  5.41 1.276                           95. 95.   95.                                
 3303      3304 1      .73  16.9       .975                      37. 37.   95.                                
 3303      3305 1     2.81  5.95  1.37                           95. 95.  144.                                
 3303      3333 1 T   2.99   6.5 1.507                          110.115.  139.                                
 3304      3331 1    26.63  27.4  .344                           19. 19.  139.                                
 3304      3334 1     19.6 20.17  .253                           23. 23.  144.                                
 3305      3306 1      .79 15.31        .95                      37. 37.   80.                                
 3305      3337 1     2.62  6.86  1.64                          105.105.   80.                                
 3307      3308 1     8.51 15.99        .95                      37. 37.  206.                                
 3308      3327 1     1.86  4.69  .076                           60. 60.  206.                                
 3309      3308 1    11.68 12.02  .151                           23. 23.  141.                                
 3310      3311 1      .81 15.58       .975                      37. 37.   37.                                
 3310      3313 1     1.79  4.68 1.119                          110.115.  300.                                
 3310      3317 1      .91  2.39  .572                           95. 95.   37.                                
 3312      3311 1     1.44  3.62  .059                           28. 28.   37.                                
 3312      3336 1     4.36  4.49  .056                           32. 32.   51.                                
 3313      3314 1      .81 15.56       .975                      37. 37.   51.                                
 3313      3329 1     4.43 11.59 2.773                          110.115.  194.                                
 3314      3328 1    17.35 17.85  .224                            8.  8.  194.                                
 3315      3314 1      .92   .95  .012                           28. 28.  194.                                
 3317      3332 1     2.49  6.52  1.56                           95. 95.  194.                                
 3318      3306 1     5.84  6.01  .075                           19. 19.  239.                                
 3320      3322 1    25.51 26.25  .329                           28. 28.  194.                                
 3321      3322 1     1.44  24.8         1.                      25. 25.  153.                                
 3321      3323 1      .56  1.46   .35                          105.105.  153.                                
 3325      3309 1     31.2  32.1  .403                           14. 14.  153.                                
 3326      3328 1    14.81 15.24  .191                           11. 11.  153.                                
 3329      3338 1     6.63 17.36 4.152                          110.110.   61.                                
 3330      3332 1     3.64  9.52 2.275                          114.114.  153.                                
 3332      3316 1     1.42 22.66         1.                      25. 25.  153.                                
 3333      3339 1     2.95  6.48 1.508                           95. 95.   95.                                
 3334      3335 1     9.23  9.49  .119                           23. 23.  153.                                
 3337      3307 1     2.62  6.86  1.64                          105.105.  144.                                
 3338      3321 1      .61  1.59  .381                          110.110.   89.                                
 3339      3310 1      1.1  2.63  .619                           95. 95.   95.                                
 3341      3338 1    .99842.6126  .625                          110.110.  110.                                
 3341      3349 1      4.5  11.8  2.81                          105.105.  105.                                
 3342      9042 1             .1                                99999999  9999                                
 3343      9043 1             .1                                99999999  9999                                
 3344      3345 1            6.7      .9849   .9  1.1      -3345150.180.32150.                                
 3345      3338 1            .98         1.            .06      150.180.  150.                                
 3348      3306 1     14.6   15.  .189                           23. 23.   23.                                
 3348      3325 1      9.2   9.5  .119                           23. 23.   23.                                
 3381      3327 1    26.25 27.02  .339                           23. 23.   23.                                
 4101      3330 1     2.25   6.5 1.581                          114.114.  114.                                
 4101      4100 1            24.         1.                     99999999   50.                                
 9001      3319 1     1.37 15.94         1.                      37. 37.   37.                                
 9001      4063 1 T           .1                                 37. 37.   37.                                
99999
FIM
